<configuration>
    <input>
        <net-file value="ant.net.xml"/>
        <route-files value="ant.rou.xml"/>
    </input>
    <time>
        <begin value="0"/>
        <end value="10000"/>
    </time>
</configuration>